CRYSTAL
PRIMVEC
  4.307502   4.307502   0.000000
  4.307502  -4.307502   0.000000
  0.000000   0.000000  21.537512
PRIMCOORD
34 1
28   0.005532   0.020533   3.423977
28   2.091336   2.178445   3.173372
28   2.213988  -2.189910   3.213343
28   4.289536  -2.166798   1.272815
28   2.155370  -4.313508   1.227785
27   4.343321  -0.052014   3.419576
27   2.111907   0.019808   1.296049
23   0.015787  -2.157432   1.302740
23   0.000000   0.000000  -1.076876
23   2.153751   2.153751  -1.076876
23   2.153751  -2.153751  -1.076876
23   4.307502   0.000000  -1.076876
23   2.153751   0.000000  -3.230627
23   2.153751  -4.307502  -3.230627
24   4.307502  -2.153751  -3.230627
24   0.000000  -2.153751  -3.230627
 8   2.216942  -0.132159   3.332781
 8   4.251849  -2.173702   3.267390
 8   0.085796  -2.178114   3.227948
 8   2.157897  -4.238465   3.224131
 8  -0.029768  -0.015029   1.165952
 8   2.305371   2.194181   1.052548
 8   2.048217  -2.188927   1.084982
 8   4.352943   0.003613   1.065450
 8   2.153751   0.000000  -1.076876
 8   4.307502  -2.153751  -1.076876
 8   0.000000  -2.153751  -1.076876
 8   2.153751  -4.307502  -1.076876
 8   0.000000   0.000000  -3.230627
 8   2.153751   2.153751  -3.230627
 8   2.153751  -2.153751  -3.230627
 8   4.307502   0.000000  -3.230627
 8  -0.075158   0.016239   5.300305
 1   0.849348  -0.039827   5.593721
