CRYSTAL
PRIMVEC
  4.307502   4.307502   0.000000
  4.307502  -4.307502   0.000000
  0.000000   0.000000  21.537512
PRIMCOORD
34 1
28   0.032084  -0.003171   3.380049
28   4.307342  -0.013667   3.157619
28   2.138655   0.000441   1.167714
28   4.317265  -2.173316   1.139111
27   2.117788   2.112409   3.348602
27  -0.030482  -2.139653   1.189985
27   2.169111  -4.349610   1.179219
27   0.000000   0.000000  -1.076876
23   2.183026  -2.184461   3.274284
23   2.153751   2.153751  -1.076876
23   4.307502   0.000000  -1.076876
23   2.153751   0.000000  -3.230627
23   4.307502  -2.153751  -3.230627
23   0.000000  -2.153751  -3.230627
23   2.153751  -4.307502  -3.230627
24   2.153751  -2.153751  -1.076876
 8   2.168423  -0.086887   3.218622
 8   4.243218  -2.141209   3.163899
 8   0.120522  -2.197667   3.239804
 8   2.143251  -4.226194   3.229505
 8   0.038480   0.033550   1.092178
 8   2.121539   2.101980   1.163964
 8   2.199170  -2.112269   1.068325
 8   4.262146  -0.044821   1.088491
 8   2.153751   0.000000  -1.076876
 8   4.307502  -2.153751  -1.076876
 8   0.000000  -2.153751  -1.076876
 8   2.153751  -4.307502  -1.076876
 8   0.000000   0.000000  -3.230627
 8   2.153751   2.153751  -3.230627
 8   2.153751  -2.153751  -3.230627
 8   4.307502   0.000000  -3.230627
 8  -0.110082   0.052511   5.288062
 1   0.767359   0.014595   5.698342
