CRYSTAL
PRIMVEC
  4.307502   4.307502   0.000000
  4.307502  -4.307502   0.000000
  0.000000   0.000000  21.537512
PRIMCOORD
34 1
28  -0.024702   0.025421   3.315566
28   2.176298  -2.160563   3.238932
28   4.307907  -2.134507   1.103208
28   2.153751   2.153751  -1.076876
28   2.153751   0.000000  -3.230627
28   4.307502  -2.153751  -3.230627
28   0.000000  -2.153751  -3.230627
28   2.153751  -4.307502  -3.230627
23   2.108894   2.121748   3.455086
23   2.117497   0.016682   1.196717
23   2.110559  -4.307063   1.181646
23   0.000000   0.000000  -1.076876
23   2.153751  -2.153751  -1.076876
23   4.307502   0.000000  -1.076876
27   4.266641  -0.053031   3.479420
24  -0.033848  -2.135685   1.160795
 8   2.290748  -0.083763   3.347595
 8   4.231901  -2.208740   3.130295
 8   0.049054  -2.150017   3.213118
 8   1.948936  -4.301196   3.136427
 8  -0.078026  -0.125289   1.235134
 8   2.243685   2.243278   1.177673
 8   2.005006  -2.240322   1.113671
 8   4.293220   0.133994   0.918229
 8   2.153751   0.000000  -1.076876
 8   4.307502  -2.153751  -1.076876
 8   0.000000  -2.153751  -1.076876
 8   2.153751  -4.307502  -1.076876
 8   0.000000   0.000000  -3.230627
 8   2.153751   2.153751  -3.230627
 8   2.153751  -2.153751  -3.230627
 8   4.307502   0.000000  -3.230627
 8  -0.180207   0.108376   5.164993
 1   0.577257  -0.371607   5.535538
