CRYSTAL
PRIMVEC
  4.307502   4.307502   0.000000
  4.307502  -4.307502   0.000000
  0.000000   0.000000  21.537512
PRIMCOORD
34 1
28   0.237059  -0.494802   4.037114
28   0.000000   0.000000  -1.076876
28   2.153751  -2.153751  -1.076876
28   4.307502   0.000000  -1.076876
28   4.307502  -2.153751  -3.230627
28   0.000000  -2.153751  -3.230627
23   2.043463   2.031286   3.463500
23   2.178752  -2.390788   3.473813
23   2.117980  -0.033072   1.130259
23   4.287765  -2.180868   1.119211
23  -0.013551  -2.154328   1.145670
23   2.128706  -4.338014   1.152338
24   4.209651  -0.120197   3.623513
27   2.153751   2.153751  -1.076876
27   2.153751   0.000000  -3.230627
27   2.153751  -4.307502  -3.230627
 8   2.095345  -0.129589   3.376430
 8   4.236749  -2.141935   3.221248
 8  -0.098628  -2.314663   3.342086
 8   1.931214  -4.455210   3.321580
 8  -0.033460   0.053330   0.973269
 8   2.053996   2.122975   1.272362
 8   2.203560  -2.186207   1.108570
 8   4.273354  -0.108733   0.954192
 8   2.153751   0.000000  -1.076876
 8   4.307502  -2.153751  -1.076876
 8   0.000000  -2.153751  -1.076876
 8   2.153751  -4.307502  -1.076876
 8   0.000000   0.000000  -3.230627
 8   2.153751   2.153751  -3.230627
 8   2.153751  -2.153751  -3.230627
 8   4.307502   0.000000  -3.230627
 8  -0.236191   0.170775   5.683025
 1   0.322816  -0.100729   6.426435
