CRYSTAL
PRIMVEC
  4.307502   4.307502   0.000000
  4.307502  -4.307502   0.000000
  0.000000   0.000000  21.537512
PRIMCOORD
33 1
28  -0.040763   0.025745   3.292635
28   2.171962  -2.215638   3.232784
28   4.318920  -2.137398   1.098466
28   2.153751   2.153751  -1.076876
28   2.153751   0.000000  -3.230627
28   4.307502  -2.153751  -3.230627
28   0.000000  -2.153751  -3.230627
28   2.153751  -4.307502  -3.230627
23   2.126868   2.108357   3.473274
23   2.151547   0.002714   1.168979
23   2.114417  -4.330676   1.156391
23   0.000000   0.000000  -1.076876
23   2.153751  -2.153751  -1.076876
23   4.307502   0.000000  -1.076876
27   4.319023  -0.048639   3.377203
24  -0.021264  -2.148923   1.158091
 8   2.305383  -0.109187   3.148821
 8   4.247411  -2.208371   3.127456
 8   0.054609  -2.149075   3.172420
 8   2.025323  -4.292940   3.245044
 8   0.069829  -0.124311   1.210576
 8   2.265479   2.086495   1.198037
 8   2.009344  -2.111799   1.098522
 8   4.207527   0.143795   1.045883
 8   2.153751   0.000000  -1.076876
 8   4.307502  -2.153751  -1.076876
 8   0.000000  -2.153751  -1.076876
 8   2.153751  -4.307502  -1.076876
 8   0.000000   0.000000  -3.230627
 8   2.153751   2.153751  -3.230627
 8   2.153751  -2.153751  -3.230627
 8   4.307502   0.000000  -3.230627
 8   0.075333   0.019623   4.998396
