CRYSTAL
PRIMVEC
  4.307502   4.307502   0.000000
  4.307502  -4.307502   0.000000
  0.000000   0.000000  21.537512
PRIMCOORD
33 1
28  -0.030418   0.086497   3.731771
28   2.133475   2.143605   3.352439
28   2.241039  -2.188677   3.164627
28   4.344338  -2.172273   1.258508
28   2.147599  -4.306818   1.240814
27   4.356645  -0.094805   3.385809
27   2.062851   0.081283   1.319714
23  -0.053742  -2.113630   1.366615
23   0.000000   0.000000  -1.076876
23   2.153751   2.153751  -1.076876
23   2.153751  -2.153751  -1.076876
23   4.307502   0.000000  -1.076876
23   2.153751   0.000000  -3.230627
23   2.153751  -4.307502  -3.230627
24   4.307502  -2.153751  -3.230627
24   0.000000  -2.153751  -3.230627
 8   2.219881  -0.107632   3.352578
 8   4.307396  -2.241160   3.266153
 8   0.033150  -2.134902   3.235971
 8   2.205727  -4.282318   3.247280
 8  -0.058015  -0.015899   1.065389
 8   2.296595   2.219475   0.972265
 8   1.952315  -2.153293   1.077999
 8   4.335909   0.033172   1.157877
 8   2.153751   0.000000  -1.076876
 8   4.307502  -2.153751  -1.076876
 8   0.000000  -2.153751  -1.076876
 8   2.153751  -4.307502  -1.076876
 8   0.000000   0.000000  -3.230627
 8   2.153751   2.153751  -3.230627
 8   2.153751  -2.153751  -3.230627
 8   4.307502   0.000000  -3.230627
 8   0.026609  -0.124029   5.420908
