CRYSTAL
PRIMVEC
  4.307502   4.307502   0.000000
  4.307502  -4.307502   0.000000
  0.000000   0.000000  21.537512
PRIMCOORD
34 1
28   0.049897   0.005408   3.498548
28   0.024842  -2.155963   1.058996
28   0.000000   0.000000  -1.076876
28   2.153751   2.153751  -1.076876
28   0.000000  -2.153751  -3.230627
23   2.236123   2.180670   3.302044
23   2.155906  -2.197689   3.383714
23   4.325362  -0.016993   3.306848
23   4.367873  -2.185958   1.134120
23   4.307502  -2.153751  -3.230627
24   2.159159   0.000276   1.103306
24   2.153751  -2.153751  -1.076876
24   2.153751  -4.307502  -3.230627
27   2.274479  -4.353632   1.056167
27   4.307502   0.000000  -1.076876
27   2.153751   0.000000  -3.230627
 8   2.150825   0.065947   3.289670
 8   4.432353  -2.197366   3.322001
 8  -0.056905  -2.162250   3.235707
 8   2.180549  -4.405443   3.229186
 8   0.130837  -0.053911   1.059352
 8   2.220456   2.139549   1.223295
 8   2.169023  -2.175215   1.078690
 8   4.236939   0.020489   1.148837
 8   2.153751   0.000000  -1.076876
 8   4.307502  -2.153751  -1.076876
 8   0.000000  -2.153751  -1.076876
 8   2.153751  -4.307502  -1.076876
 8   0.000000   0.000000  -3.230627
 8   2.153751   2.153751  -3.230627
 8   2.153751  -2.153751  -3.230627
 8   4.307502   0.000000  -3.230627
 8  -0.219348  -0.125582   5.398274
 1   0.587975   0.103753   5.892574
