CRYSTAL
PRIMVEC
  4.307502   4.307502   0.000000
  4.307502  -4.307502   0.000000
  0.000000   0.000000  21.537512
PRIMCOORD
33 1
28  -0.204371   0.035542   3.534208
28   2.115275   2.109048   3.540101
28   4.283436  -0.046152   3.412489
28   2.176187   0.011863   1.223473
28   2.153751   2.153751  -1.076876
28   2.153751  -4.307502  -3.230627
23   2.147766  -2.042159   3.408769
23   4.373152  -2.177907   1.224451
23  -0.091284  -2.179163   1.282773
23   2.130476  -4.365457   1.263776
23   0.000000   0.000000  -1.076876
24   2.153751  -2.153751  -1.076876
24   4.307502   0.000000  -1.076876
24   2.153751   0.000000  -3.230627
27   4.307502  -2.153751  -3.230627
27   0.000000  -2.153751  -3.230627
 8   2.325679  -0.058949   3.223834
 8   4.164960  -2.080143   3.327806
 8   0.044028  -2.357321   3.236848
 8   1.969664  -4.215877   3.348325
 8   0.015348  -0.106193   1.342180
 8   2.223292   2.066726   0.954552
 8   2.057738  -2.160046   1.198060
 8   4.270863   0.023029   0.894220
 8   2.153751   0.000000  -1.076876
 8   4.307502  -2.153751  -1.076876
 8   0.000000  -2.153751  -1.076876
 8   2.153751  -4.307502  -1.076876
 8   0.000000   0.000000  -3.230627
 8   2.153751   2.153751  -3.230627
 8   2.153751  -2.153751  -3.230627
 8   4.307502   0.000000  -3.230627
 8   0.177539  -0.122990   5.173871
