CRYSTAL
PRIMVEC
  4.307502   4.307502   0.000000
  4.307502  -4.307502   0.000000
  0.000000   0.000000  21.537512
PRIMCOORD
33 1
28   0.086099   0.088427   3.273621
28   4.295330  -0.015837   3.144560
28   2.155267   0.009383   1.150013
28   4.317195  -2.154016   1.160676
27   2.155323   2.152205   3.405266
27  -0.017847  -2.165762   1.226376
27   2.145486  -4.326790   1.223185
27   0.000000   0.000000  -1.076876
23   2.151478  -2.150497   3.382703
23   2.153751   2.153751  -1.076876
23   4.307502   0.000000  -1.076876
23   2.153751   0.000000  -3.230627
23   4.307502  -2.153751  -3.230627
23   0.000000  -2.153751  -3.230627
23   2.153751  -4.307502  -3.230627
24   2.153751  -2.153751  -1.076876
 8   2.303690   0.036113   3.148785
 8   4.333321  -1.978464   3.158033
 8  -0.029934  -2.369285   3.263039
 8   1.965669  -4.346406   3.260959
 8   0.043121   0.026764   1.213924
 8   2.117639   2.122447   1.060177
 8   2.201218  -2.118467   1.003390
 8   4.267049  -0.040372   1.038943
 8   2.153751   0.000000  -1.076876
 8   4.307502  -2.153751  -1.076876
 8   0.000000  -2.153751  -1.076876
 8   2.153751  -4.307502  -1.076876
 8   0.000000   0.000000  -3.230627
 8   2.153751   2.153751  -3.230627
 8   2.153751  -2.153751  -3.230627
 8   4.307502   0.000000  -3.230627
 8   0.055587   0.010354   4.970518
