CRYSTAL
PRIMVEC
  4.307502   4.307502   0.000000
  4.307502  -4.307502   0.000000
  0.000000   0.000000  21.537512
PRIMCOORD
34 1
28  -0.012676   0.066578   3.550905
28   2.132860   2.200381   3.523150
28   4.269734  -0.019230   3.419692
28   2.174470   0.022229   1.261240
28   2.153751   2.153751  -1.076876
28   2.153751  -4.307502  -3.230627
23   2.197392  -2.114196   3.439884
23   4.377801  -2.185143   1.242568
23  -0.035070  -2.170870   1.326028
23   2.149317  -4.349870   1.255493
23   0.000000   0.000000  -1.076876
24   2.153751  -2.153751  -1.076876
24   4.307502   0.000000  -1.076876
24   2.153751   0.000000  -3.230627
27   4.307502  -2.153751  -3.230627
27   0.000000  -2.153751  -3.230627
 8   2.166366  -0.079568   3.271123
 8   4.212486  -2.128711   3.342911
 8   0.024711  -2.237787   3.244824
 8   2.115171  -4.187682   3.354065
 8   0.049657  -0.144092   1.177552
 8   2.202638   2.101234   0.940652
 8   2.141889  -2.115004   1.243867
 8   4.281549   0.068521   0.917759
 8   2.153751   0.000000  -1.076876
 8   4.307502  -2.153751  -1.076876
 8   0.000000  -2.153751  -1.076876
 8   2.153751  -4.307502  -1.076876
 8   0.000000   0.000000  -3.230627
 8   2.153751   2.153751  -3.230627
 8   2.153751  -2.153751  -3.230627
 8   4.307502   0.000000  -3.230627
 8   0.006161  -0.099332   5.417275
 1   0.750091   0.408718   5.784217
