CRYSTAL
PRIMVEC
  4.307502   4.307502   0.000000
  4.307502  -4.307502   0.000000
  0.000000   0.000000  21.537512
PRIMCOORD
33 1
28  -0.010211  -0.005944   3.385642
28   0.004539  -2.158786   1.039286
28   0.000000   0.000000  -1.076876
28   2.153751   2.153751  -1.076876
28   0.000000  -2.153751  -3.230627
23   2.166380   2.142412   3.306844
23   2.116225  -2.181870   3.371055
23   4.304222  -0.008156   3.245957
23   4.346690  -2.184164   1.117585
23   4.307502  -2.153751  -3.230627
24   2.146604  -0.005176   1.068889
24   2.153751  -2.153751  -1.076876
24   2.153751  -4.307502  -3.230627
27   2.257530  -4.378805   1.044868
27   4.307502   0.000000  -1.076876
27   2.153751   0.000000  -3.230627
 8   2.134697  -0.022929   3.107600
 8   4.309417  -2.204934   3.250483
 8  -0.040912  -2.166902   3.151027
 8   2.138840  -4.354296   3.145997
 8   0.117866  -0.048252   1.042041
 8   2.201022   2.027846   1.130002
 8   2.151103  -2.073459   1.016275
 8   4.214863   0.013956   1.095546
 8   2.153751   0.000000  -1.076876
 8   4.307502  -2.153751  -1.076876
 8   0.000000  -2.153751  -1.076876
 8   2.153751  -4.307502  -1.076876
 8   0.000000   0.000000  -3.230627
 8   2.153751   2.153751  -3.230627
 8   2.153751  -2.153751  -3.230627
 8   4.307502   0.000000  -3.230627
 8   0.029581  -0.063110   5.221381
