CRYSTAL
PRIMVEC
  4.307502   4.307502   0.000000
  4.307502  -4.307502   0.000000
  0.000000   0.000000  21.537512
PRIMCOORD
33 1
28   0.386193   0.329949   4.084915
28   0.000000   0.000000  -1.076876
28   2.153751  -2.153751  -1.076876
28   4.307502   0.000000  -1.076876
28   4.307502  -2.153751  -3.230627
28   0.000000  -2.153751  -3.230627
23   2.230547   2.308745   3.469327
23   2.067875  -2.176074   3.435062
23   2.093159   0.016182   1.077627
23   4.277752  -2.179008   1.115433
23  -0.018420  -2.133703   1.062579
23   2.120254  -4.278392   1.087470
24   4.230599  -0.021533   3.504394
27   2.153751   2.153751  -1.076876
27   2.153751   0.000000  -3.230627
27   2.153751  -4.307502  -3.230627
 8   2.107295   0.019757   3.210674
 8   4.238925  -2.160029   3.354837
 8  -0.053182  -2.297817   3.051313
 8   1.923789  -4.278022   3.230807
 8   0.030181  -0.094527   1.045873
 8   2.147625   2.084256   1.176778
 8   2.097977  -2.035111   1.177580
 8   4.178605   0.072077   0.971355
 8   2.153751   0.000000  -1.076876
 8   4.307502  -2.153751  -1.076876
 8   0.000000  -2.153751  -1.076876
 8   2.153751  -4.307502  -1.076876
 8   0.000000   0.000000  -3.230627
 8   2.153751   2.153751  -3.230627
 8   2.153751  -2.153751  -3.230627
 8   4.307502   0.000000  -3.230627
 8  -0.305523  -0.239465   5.512813
